108

C 0.9686287978963828 11.346776354073778 8.752083779617331
C 5.6740192267111675 7.447315003135202 17.62865683662113
C 9.018178506129015 15.924197097516384 13.850078045759014
C 1.6999587546302575 16.69670693417988 10.95696660109424
C 10.552876467706554 3.2054555196971166 10.489462950041348
C 10.19355562736705 11.30347752372595 1.9555211871537266
C 10.712974997620911 12.776321189260663 6.856703970153433
C 12.749078099473742 2.4915587911491865 1.1338399799201189
C 2.7340843264709043 8.116491373742853 9.198482971632268
C 4.068807916453249 10.945453916342474 6.476639998538682
C 17.832784519806996 3.1563730262513414 16.844394643132496
C 9.7165784374212 5.507738876598733 16.603636000567132
C 10.37742054475007 9.615213974902122 11.851008857576998
C 10.495921668543838 9.241301716776126 5.182398689932635
C 3.8242026000430265 10.778033962934094 -0.5895093666265612
C 13.412425822409206 6.690264284744217 11.647470755402042
C 7.847344500165185 18.311666126190403 11.272748262439338
C 5.723216286813798 17.466339212885924 8.168836936218264
C 3.111419023270829 1.9953139485042333 9.748741897661848
C 11.075394160382846 0.755966647939879 16.170817826420134
C 5.631161806920928 5.481340482900854 3.1294389601019956
C 16.393863836488492 7.082098413951284 2.694048628869064
C 3.4819674445922852 2.111615968277085 16.385782554049428
C 1.0738589016910085 13.647178580104173 5.5583946897022445
C 12.725382674315501 15.577516536454532 4.931804526008885
C 6.7722060200842895 8.175295955419777 11.43383452478339
C 7.577643906124399 0.8532083500261283 2.1530034516835532
C 13.067700132469383 18.107812795089334 8.766230502999706
C -0.1155704368058778 15.47239189603997 14.253052581166559
C 18.288677346615174 12.587660057780866 0.48111131609805774
C 14.440777930223973 2.895994248277104 11.186403358973326
C 12.37583622076944 10.356217986385955 16.73243671580113
C 6.399434008096299 5.523467257240555 14.392424139679727
C 1.6948725954975086 5.437575551234094 3.9799002870489346
C 2.827479961974706 5.111276763125212 0.4978954316318227
C 12.11516656576687 9.024716327824883 8.568376297987161
C 13.36819878418555 13.56975452234747 18.659753208920545
C 15.518576260875081 17.29472086631625 11.774460713768775
C 3.6697171220903626 16.850081113306697 14.32696863742934
C 16.329442898805805 16.66384113864894 6.239724993515092
C 1.6172185946680597 8.673747589415981 1.6728610328049083
C 0.827357296137092 16.933170395847984 3.298098244025473
C 4.284315160450601 9.832954487611417 13.713788677306157
C 3.7776066032926363 4.858869736727214 7.214331893920765
C 16.229015262364488 15.927965993815254 17.768370438607487
C 1.4515455511454007 3.5093974953036873 13.24206829199671
C 8.825648924805712 2.7092677884661516 13.90801868039186
C 16.60164723563507 5.411961293175301 6.179215493946067
C 15.675379294679718 12.569697718716158 15.630436898992878
C 11.116048484638823 1.2222907863540826 4.510329378474418
C 14.944326201460626 1.3313413948128967 14.981133928155444
C 3.3331449723194884 14.19549979252637 8.617973881413958
C 11.777803324098763 0.3120831901014172 12.480154788103333
C 18.399669969768876 2.1471438861595056 5.352983241545508
C 17.731750735563637 6.866251279286698 16.978135057464197
C 0.7378580313637659 10.111826214230195 15.386530388522361
C 6.892545649197941 2.619040690216787 5.5649324872898145
C 5.125558490259708 2.191857148653894 13.014833638244724
C 4.342440893640913 17.189118023464513 0.7200966319599003
C 18.59613943295236 4.8964606158867285 9.553932944026489
C 13.468836238492779 15.844042461624035 15.076040720419831
C 9.087000066460028 6.516330924905301 8.949612465857845
C 16.02209634569915 14.295877622891016 3.277006602934402
C 17.006966530728434 10.736209802483064 3.589728548928665
C 11.33892300177649 16.8976578798424 1.5560591871355633
C 6.912739878021556 0.3486637258398143 16.05395636122285
C 5.511317990104625 15.35832453748405 11.379451562631173
C 12.757452365265905 8.42856911912609 2.089900051722161
C 8.764003505579595 15.881634041870813 5.402099257811893
C 5.47963032641504 13.385667064364291 14.614757377639544
C 8.106487951313063 8.850608831762841 14.965586184082435
C 7.539242552290562 11.691120289916649 5.030405530211874
C 17.100232518070204 11.000369996073452 12.087991324331373
C 7.93784809476636 12.494361941490158 11.77168390187292
C 3.7242053728060647 2.147716418613523 3.1813018342532287
C 13.27650523238659 11.751248523286597 4.00951415912972
C 14.260005521834533 5.669132307020296 17.63977306432163
C 9.71220203899614 6.1126711818205495 12.721141552592144
C 2.9149594133477668 6.584966912446056 15.05374192928627
C 2.3934508463696256 13.090528297474725 12.342350319433422
C 9.474126404440218 4.119188635288018 2.414022422296977
C 15.773885525409517 9.819581252777018 18.209828339775342
C 8.336099646690105 10.256621504739446 8.568462525673118
C 5.127106472627308 9.342395354282734 2.9529359875616357
C 16.630376541605003 8.273632154895433 9.023709729298915
C 4.877354736622358 14.878732575370334 5.291183887699065
C 6.852585364939878 7.882790347680764 5.97762942715427
C 16.387032659488682 3.39731627096724 2.4037110349174924
C 12.359386520301666 3.9093747897373756 14.22708526321724
C 14.644307608512669 2.109887441781113 5.874080546270811
C 15.74673093320431 12.128860521451854 6.82651982365189
C 17.255099053241793 1.2987399371536539 8.9107057577665
C 7.067742239790476 13.794972364749473 8.21876742174064
C 13.299730147601567 5.118561610566186 3.8511168799145037
C 18.46506384104136 7.46436088530224 12.402942380602575
C 9.960098480118551 15.510077714832871 9.980237407339247
C 14.542507879497105 8.575208102271073 5.618247901438241
C 6.5602989125583555 3.7581703182404116 17.81602914543757
C 8.610335328199614 7.791233036115434 2.122072278660706
C 6.719678840057985 3.3733426047808632 9.459810007792719
C 0.8644501183609621 8.562100588629985 5.924342952245543
C 9.342388029436432 0.6948373663087781 7.879576516613585
C 14.932801545121704 17.886748885173613 2.8400290520616327
C 15.267972841873073 8.654399224037197 14.622419411464739
C 16.010372533678904 4.989174091300559 14.053302937866814
C 4.065694498718079 5.445331230458269 11.370236962285881
C 2.0740818365654654 17.279762651364784 7.013054681038534
C 4.836683767236418 11.175053171358591 10.159962382063005
