108
C 2.4300615436449364 8.749720147656339 2.7469989649454902
C 1.6759196384929238 9.829895623100182 8.717296884584098
C 14.903983957197722 2.7609801242892953 5.836433937156723
C 4.657307842864509 5.8778656486191085 7.362175458988695
C 8.23915848502796 3.4309134949909192 1.8857024944754217
C 4.009621619732683 9.943621499290693 14.0343525747999
C 10.605479070751912 7.1049464551705315 7.551181136544657
C 5.177393693767519 12.430900694488892 5.872199701306727
C 1.473778298957438 3.5140677837511776 9.243257955407314
C 8.030797327293602 4.53604919826414 11.19406920425882
C 0.8988163112989185 17.583842057829564 4.47525576063162
C 14.338387696711521 7.986480583020237 16.28454029680225
C 0.10999079724321459 11.798467658915722 15.443185708535454
C 12.507781377555578 5.908427220834079 0.012966748447204024
C 10.990003705352605 1.0136908663665267 4.434862070358675
C 3.426690447008737 16.784791246142095 15.845641789180956
C 6.555924906101724 12.651102401068059 13.792217844523748
C 2.6048830162705 13.851816951519082 2.0720877031121594
C 10.584362920878867 0.4556693991454295 15.6138493344615
C 7.466469705643824 13.312198166182622 2.0721558249671186
C 16.89207990473725 1.7172405426678956 11.332957405251557
C 15.855751328095467 15.334088551472897 11.34255389501057
C 13.11068865374889 9.989009672199145 13.7893294500855
C 10.540562961380584 14.54059419098961 12.927300927497754
C 8.944428974454429 7.10030501795695 17.871292951984042
C 2.756200365712847 3.6010950793847254 0.8919681156020864
C 4.894089046777253 1.028896005363826 16.854472034643024
C 15.149011361549242 12.05807336749053 3.448846324129712
C 16.216315645276516 16.669268198833482 15.572576741742362
C 7.831856780281743 2.511448255094132 6.020930002042005
C 12.962566181755587 16.919137291843313 0.9367085369320547
C 14.250067117422454 2.2853335175117895 13.772700199242822
C 6.845424332833378 17.76612372188733 9.93811416954186
C 4.906036848540197 10.532265016599302 1.0567836758854627
C 16.72236927544478 7.448094493198401 2.6813472546778425
C 15.090642301931767 9.0413186149247 7.239564897136821
C 17.04253999471707 14.968433379054726 7.949915704712278
C 10.216334136044258 17.759559295380356 8.35764364473043
C 13.122353797777055 2.7594217934463217 2.0897163909674585
C 16.691564030264324 16.493646995979592 2.1941011477036536
C 2.925615535963613 13.692724327069344 8.532642383170057
C 2.7551232339628875 0.43055318978607215 3.533090130204028
C 9.351334638987153 6.816771572648737 3.443973067601851
C 1.1525676595397432 1.5577946812975751 12.066132226949232
C 15.546351894672721 1.5604326677893843 17.44684095628883
C 14.268290659902592 13.108067332604511 6.561746862210265
C 9.020057005420174 3.404151132611108 17.098878657502723
C 5.236595032661991 6.5222587417570566 0.800662078570731
C 13.954149966169751 5.666239154660346 3.7007195440820704
C 13.833982748866946 13.890630139921846 17.971848063898744
C 15.94113283968914 10.065872729498901 0.4184902696530317
C 12.94525083214706 15.585253519704843 8.634552641941454
C 17.43550575643146 5.966404677245258 15.120533776085207
C 2.9302385936200515 16.49699198881694 11.016140368582503
C 0.1667236476002829 0.9308403217205452 15.32846919096184
C 2.870516626983918 12.345799946904519 11.853157749369366
C 16.763039971175285 11.44392740259158 9.488708339502448
C 4.451055922019572 2.8560657872604622 11.558199158142235
C 8.752274301747217 11.038230241908554 16.075130859736436
C 10.125871960651663 13.790666879867814 5.547351519773965
C 12.231901398675731 7.508105724160484 11.35931509596189
C 7.2375636652933055 17.452490794030325 3.1286747920476037
C 15.946191297702471 8.129861983451496 12.929233997206467
C 9.357781280612294 15.479361269836787 16.988228524141057
C 7.651333367762778 2.027937660530032 13.767382578213384
C 11.5605278335377 2.3849513767289974 10.972413690083332
C 12.538609372849793 10.600183654250298 1.1732321223443585
C 7.795583967471714 10.522222889126802 11.296417921604778
C 5.422516067937993 4.979058106174593 15.37182165003021
C 3.8522861311608323 12.6923243908054 16.407208408116762
C 15.337109743189865 4.738416894283048 11.532742925679466
C 7.717266652122515 14.339895069105456 10.977690175327728
C 6.455031223948363 16.783274565685154 13.400021934616095
C 12.501693333052048 17.033752543110356 11.703220055935384
C 0.8064837953045743 12.473380849415513 4.683766133774888
C 12.769346634386999 12.451018494596134 11.29168287354494
C 5.504474263464408 16.01118903656444 7.095370347444088
C 17.45878425898063 4.566566525820584 0.6340173544508731
C 14.326162205260738 13.261385424045598 14.615137565679351
C 13.575237743660573 16.306385265124582 4.450199545492256
C 12.362680572400553 8.827669490809228 5.046144683022341
C 11.155893932566524 14.023861304191334 2.1297825611576515
C 5.804553040086714 15.829090291053433 0.1932504699269444
C 9.8678576305811 10.752155156150407 3.372455891157713
C 12.268516251883753 5.805796160347927 14.620325535387591
C 0.6910219926837846 14.999434946987797 13.93911580734056
C 17.590443935463536 13.686715400024228 0.38902183397236256
C 5.931504921044046 8.454486084774064 3.6621452988643597
C 2.1974081115680306 3.8291376317048655 14.587610639830531
C 8.606302198433898 6.676906304654631 14.014676202663127
C 13.102389877148703 4.492805848585593 8.200500721390236
C 0.1670404848381628 6.706718129685407 5.877228876221833
C 2.684389513861087 7.076351430911541 12.178271740108292
C 9.697518567361847 10.732919480814667 7.623628205123556
C 15.150266445009585 0.6334058722115699 8.59093796667822
C 2.078647165860895 3.5753421181808163 4.875601072610743
C 6.9964872196354975 8.03850211277946 8.611455272235478
C 4.594575216207244 2.4035228276030622 8.03406659390361
C 1.214371714912388 8.56133449662577 17.216516954124845
C 0.6926736341427262 0.029528786859741363 7.898208691512628
C 5.299540365986595 2.7288080765407656 3.4575372400923605
C 17.793737846917466 6.988003882189414 9.83960056919493
C 17.187688537084618 2.4008383533539654 3.3360714937270446
C 4.917300384866611 10.832089307823367 9.11561616361454
C 1.4132862397104484 0.028251199086970935 0.3861213200091955
C 6.354910981250568 8.63322228188437 16.279891932296056
C 11.002927471531255 4.272957916312647 5.526937537142142
C 9.844292032883722 0.43760652300336855 1.0892796115152794
