108

C 0.48782277221483406 15.000457107626925 6.1975311604919066
C 9.733668162494892 7.289645830699893 10.341674824207695
C 9.256437014535672 10.32831853972321 3.121616159239357
C 15.220414542067694 2.4688113432570202 15.52406444232465
C 9.030797280733722 13.862790979875792 17.387721673152654
C 17.554814964538956 11.305295641841447 16.360300207409775
C 11.258553488509666 3.8661387997289935 0.7574145991010739
C 3.924150792394217 9.235514488851523 14.568118507179966
C 7.884022822289875 17.177854303511122 14.001661407515885
C 1.4835598400984689 17.20170660621181 17.750735132160585
C 6.189392550105961 11.014747568771623 16.694116629590443
C 4.680615381124558 5.083112628435354 6.537566143491988
C 11.029556190654981 1.0086606953877446 11.208332881705516
C 15.130590654856185 5.8965874962790785 4.039880189260085
C 14.442755432555177 8.277782400505822 16.491263981714997
C 3.362084699741919 5.883862421816526 13.838916975346972
C 11.675328935439643 11.760468205011135 0.6486245693843695
C 10.782738972129135 7.293596659646201 4.1114598455321705
C 0.3592307781048498 12.73543364728693 2.3335047102601916
C 3.280539596651618 2.7923186235735846 11.82012131961673
C 14.967368794736817 16.06574101377629 9.28228216416425
C 11.250046867815838 12.31675312850754 12.640925224868461
C 10.87832858697141 2.3641793602891825 6.451160654443142
C 0.5859017255339591 9.104008503330798 0.984860761224077
C 17.708909897113003 2.520923547008759 9.446605678434246
C 16.14271761210392 16.228390010060863 16.291629283082912
C 12.797630048616508 13.120443112617872 4.193022355256133
C 6.203845249955926 12.048430569032172 5.481306151677401
C 14.206442802539488 10.030182730957007 10.755895213917844
C 1.8507380876940347 8.573637376543932 10.19445704510211
C 6.734278227426523 15.689905224591442 9.23850326346747
C 1.0989113360661926 2.53705251496839 16.46708688284935
C 7.4307419091769 5.333506221742514 1.9555570584706814
C 7.745509534197828 2.61643609831951 4.172886668191227
C 6.53859642716282 2.3025138018340057 7.641415045442634
C 0.6155699681424274 14.425402645509605 9.8205741432592
C 13.647282663356886 8.753353531195543 1.7842163330234617
C 1.5062796982453026 3.961850744771896 2.2862595298715056
C 16.558931371891546 0.5260813566155771 1.344433159317964
C 6.403796736957974 9.958778969172473 10.123812407496619
C 11.941648440077506 17.853295253659642 17.30711090380289
C 5.897742586718869 2.151981576556235 15.618907033312937
C 0.7466180749986109 13.398227497245667 13.16397877445371
C 0.4962598447030764 9.237314716042652 5.233752425654334
C 9.63488613922751 7.0385320885718174 16.20182020316341
C 4.532664698656846 8.507186749046443 5.261287316158194
C 15.98950607933835 17.043863884872618 12.53439853954537
C 8.629646520123266 17.791631113431293 1.0614747911055578
C 10.5901748593619 2.9892783238897467 14.394527409841677
C 4.805317495941743 15.21072309226369 5.213400842714835
C 15.48838134591751 4.9848835977741714 8.354849214333118
C 13.942063531979212 16.47834750297517 2.4223284769615727
C 2.2800308938643097 17.476821377830944 9.010654942032971
C 13.631403866108508 4.426485153913224 11.637750081932392
C 8.47816168567614 9.245153741681571 7.398758317742013
C 10.96969722862497 11.778796728865714 8.56251693904707
C 4.118802656313668 17.157378433473394 13.852638220614928
C 17.012805251189324 7.336214751890321 11.893449272008919
C 9.31961286228411 14.160133912149504 5.2417630473927055
C 11.80153114247943 15.635103764591875 7.112005977399333
C 3.5927546074495336 14.039451615195851 1.37571162829814
C 16.42868428068361 2.6194212831182657 5.938176687677357
C 1.472734587829846 1.0154121209156386 5.887014090971506
C 0.026791650175799653 6.511248983272752 15.104687616765359
C 5.464139654436102 13.415429451511363 12.582266431970963
C 5.795103273476447 5.155768865894088 11.219456880414159
C 7.84999583287588 9.737781765585845 13.726916308717787
C 12.60242978302105 6.1400684058049375 6.969033598572712
C 14.504056826674235 11.445824456371016 7.603842018259086
C 3.795280892148213 7.1789003557406215 0.5067870910581194
C 14.413116600983834 13.20996594309631 16.124015072291826
C 4.442691440866079 1.5241889591055826 2.8550355910371383
C 1.17415620230994 6.215612632890488 7.331073357155961
C 15.670171062832225 13.009957271932011 11.491058115650247
C 11.530444759220835 8.288690253277665 13.221725335172186
C 3.41444939693824 11.842476318259202 9.888044135823076
C 14.407082300534384 1.4559785757709593 9.08694901938659
C 2.725962933021596 13.927268296058038 15.97921156073737
C 13.990985024098833 0.19376200888274253 5.519877224747283
C 14.867775202519104 5.4480615608255665 0.43228335668192863
C 12.603505265944149 15.877750068123815 14.202515075868384
C 17.89370514666814 10.91999695051985 8.544048971841349
C 3.8890144295769473 10.48873720608804 1.6767145139749071
C 7.5266430042922305 6.699599576033737 5.315994209490696
C 10.062029305634969 15.70609610566619 10.882003714349407
C 7.70100403193599 17.42204958000641 5.783114983156384
C 17.654596592135082 3.88654946179924 12.867052986482124
C 5.62451673003795 16.483856810120866 16.867460894425
C 15.375445353442451 11.668852963721127 1.0079664660224341
C 7.625710126402183 2.52044784562871 12.675689823882362
C 13.032311156370117 5.475502175579813 14.86494179279899
C 8.846067143378598 3.6971157479015506 9.718301672230622
C 10.747673291544457 15.117906827932618 2.113319867222131
C 11.036001419590026 0.6002339792078366 3.495605303823859
C 6.1343278608424985 5.786621065982958 16.45978935489884
C 2.521299719853099 12.188459941216525 5.517711921117312
C 6.942339999246784 13.120001558713739 2.21763927254715
C 1.6939482029979271 16.772147025894355 3.1735195710799378
C 15.523079057677915 8.193924246152914 6.598269216954627
C 7.651678739807168 8.51624138262602 0.6012136034710673
C 14.193989864045953 2.666096677241276 2.5837992706518245
C 5.572034342849227 0.6412479915615168 10.477405934275394
C 15.900038061904374 11.487970607524245 4.364642472244824
C 11.880022130197192 10.119539894843884 5.689292026925339
C 0.9217499702472352 0.44211388139451047 13.654029376624196
C 0.714225663670873 9.965798287458675 13.31735187195606
C 15.017743522344958 14.925068867940281 6.049645430303545
C 8.594144382521591 5.7587450416102985 13.202422779923326
